%nosave
#p opt=(modredundant,loose) pm7

title

1 1
 C                 -1.57648425    1.06815901    0.27001569
 C                 -0.03429576    0.89563577    0.33214425
 C                  0.78404005    2.18860816   -0.06353560
 C                 -1.99830130    1.81908986    1.52822483
 C                  0.44689236    3.54867488    0.64546943
 C                 -2.05081494    3.31259251    1.75680220
 C                 -0.93199935    4.01150866    1.02276642
 H                 -1.85477998    1.57891716   -0.62808096
 H                  0.62228029    2.35886962   -1.10744403
 H                 -2.05310188    0.11042493    0.29194881
 H                  1.81221596    1.96412103    0.12975132
 H                  1.12863736    4.34336888    0.42504891
 H                 -2.98151181    3.73078329    1.43459139
 C                 -1.98399549    3.39018205    3.29368801
 H                 -2.21047827    4.36337543    3.67644145
 H                 -1.01985850    3.10801359    3.66209109
 C                 -3.01720760    2.31349680    3.63604027
 H                 -3.13076004    2.11212435    4.68076750
 H                 -3.97552522    2.59022192    3.24880578
 C                 -2.40766386    1.14224634    2.85584746
 H                 -3.07234188    0.31223175    2.73677218
 C                 -1.14227982    0.64556534    3.57952640
 H                 -1.41116125    0.24813063    4.53589895
 H                 -0.67362482   -0.11823952    2.99483445
 H                 -0.46285799    1.46170836    3.71066169
 C                 -0.77990717    3.97150190   -0.45306216
 H                 -1.17578558    4.94661880   -0.64626496
 H                 -1.43011458    3.14557836   -0.65301371
 C                  0.31763134    0.46285460    1.76757024
 H                  0.02991805    1.23261038    2.45284179
 H                 -0.20439101   -0.44024040    2.00592316
 H                  1.37188777    0.29549520    1.84128720
 C                  0.38565116   -0.19211937   -0.67385442
 H                  0.12523681    0.11827763   -1.66417662
 H                  1.44313281   -0.34400988   -0.61417326
 H                 -0.11963485   -1.10640380   -0.44218648
 C                 -0.90551336    5.40163953    1.68491041
 H                 -1.86498595    5.86397726    1.58216731
 H                 -0.66905057    5.29766737    2.72326254
 H                 -0.16410094    6.00914410    1.20936248

4 13 S 20 -0.05





