%nosave
%chk=IM5_tsopt.chk
#p PM7 opt=(calcfc,tight,ts,noeig,maxcyc=500) freq=noraman pop=none iop(1/8=10)

title

1 1
 C                 -0.43050300   -1.59464500    0.25236200
 C                 -1.84039800   -0.98608600    0.01212600
 C                 -2.06143400    0.27977700    0.86707700
 C                  0.74331000   -0.71367200    0.31255600
 C                 -1.58536400    1.53168600    0.17996500
 C                  0.87732900    0.69896400    0.26482500
 C                 -0.10949200    1.71558400   -0.16903000
 H                 -0.46708100   -2.23124700    1.17537200
 H                 -1.61960100    0.15554900    1.87142400
 H                 -0.26375100   -2.36246500   -0.55575900
 H                 -3.15371100    0.39173700    1.07658800
 H                 -2.31757100    1.89722700   -0.56044600
 H                  0.60260600    0.24154600    1.46278800
 C                  2.34878500    1.08303800    0.24697100
 H                  2.57205400    1.93832800    0.91346100
 H                  2.64876500    1.42648900   -0.76728200
 C                  3.10225200   -0.19559100    0.64729400
 H                  4.03486100   -0.31595700    0.06226700
 H                  3.43412600   -0.15899100    1.70146400
 C                  2.12007000   -1.36588600    0.40769100
 H                  2.17173700   -2.10190900    1.24697300
 C                  2.41471300   -2.08606800   -0.90606100
 H                  3.44835800   -2.47276300   -0.91602300
 H                  1.76399400   -2.95521800   -1.06877700
 H                  2.32000400   -1.42552200   -1.77844800
 C                 -0.76729600    2.56414000    0.90961900
 H                 -0.94247000    3.62575100    0.71598300
 H                 -0.51016500    2.43674600    1.95635100
 C                 -2.02125400   -0.70822300   -1.48229700
 H                 -1.23533300   -0.06313400   -1.88792000
 H                 -2.02243600   -1.63367000   -2.07311700
 H                 -2.98266500   -0.21339500   -1.68197300
 C                 -2.86872400   -2.04537400    0.44376600
 H                 -2.84400700   -2.23925500    1.52193800
 H                 -3.89267800   -1.72479700    0.20078800
 H                 -2.71797100   -3.00205500   -0.07128200
 C                  0.24192800    2.35290600   -1.48709900
 H                  1.09472700    3.04268000   -1.39703700
 H                  0.48742500    1.60926700   -2.25743000
 H                 -0.59274300    2.95175300   -1.88848900




